Circuit: * C:\Users\gabri\Dropbox\University\Circuitos lineales 1\tareas\Tarea4\Simulaciones\ejercicio 1.asc

Early termination of direct N-R iteration.
Direct Newton iteration failed to find .op point.  (Use ".option noopiter" to skip.)
Starting Gmin stepping
Gmin = 10
Gmin = 1.07374
Gmin = 0.115292
Gmin = 0.0123794
Gmin = 0.00132923
Gmin = 0.000142725
Gmin = 1.5325e-005
Gmin = 1.6455e-006
Gmin = 1.76685e-007
Gmin = 1.89714e-008
Gmin = 2.03704e-009
Gmin = 2.18725e-010
Gmin = 2.34854e-011
Gmin = 2.52173e-012
Gmin = 2.70769e-013
Gmin = 0
Gmin stepping succeeded in finding the operating point.


Date: Sun Nov 28 19:33:56 2021
Total elapsed time: 0.103 seconds.

tnom = 27
temp = 27
method = trap
totiter = 297
traniter = 0
tranpoints = 0
accept = 0
rejected = 0
matrix size = 33
fillins = 75
solver = Normal
Matrix Compiler1: 6.53 KB object code size
Matrix Compiler2: 4.09 KB object code size  0.7/0.7/[0.5]

